/*--------------------------------*- C++ -*----------------------------------*\
  =========                 |
  \\      /  F ield         | OpenFOAM: The Open Source CFD Toolbox
   \\    /   O peration     | Website:  https://openfoam.org
    \\  /    A nd           | Version:  6
     \\/     M anipulation  |
\*---------------------------------------------------------------------------*/
FoamFile
{
    version     2.0;
    format      ascii;
    class       dictionary;
    object      initialConditions;
}

// * * * * * * * * * * * * * * * * * * * * * * * * * * * * * * * * * * * * * //

neutronDensity 10.0;

firstDelayedPrecursorDensity 6717.48;

// ************************************************************************* //