/*--------------------------------*- C++ -*----------------------------------*\
  =========                 |
  \\      /  F ield         | OpenFOAM: The Open Source CFD Toolbox
   \\    /   O peration     | Website:  https://openfoam.org
    \\  /    A nd           | Version:  6
     \\/     M anipulation  |
\*---------------------------------------------------------------------------*/
FoamFile
{
    version     2.0;
    format      ascii;
    class       dictionary;
    object      reactorProperties;
}

// * * * * * * * * * * * * * * * * * * * * * * * * * * * * * * * * * * * * * //

reactivity 0.0013;

totalDelayedPrecursorFraction 0.0065;

meanNeutronGenerationTime 0.0001;

firstDelayedPrecursorFraction 0.0065;

firstDelayedPrecursorDecayConstant 0.07741;

// ************************************************************************* //